/*--------------------------------*- C++ -*----------------------------------*\
| =========                 |                                                 |
| \\      /  F ield         | OpenFOAM: The Open Source CFD Toolbox           |
|  \\    /   O peration     | Version:  v2012                                 |
|   \\  /    A nd           | Website:  www.openfoam.com                      |
|    \\/     M anipulation  |                                                 |
\*---------------------------------------------------------------------------*/
FoamFile
{
    version     2.0;
    format      ascii;
    class       dictionary;
    location    "constant";
    object      transportProperties;
}
// * * * * * * * * * * * * * * * * * * * * * * * * * * * * * * * * * * * * * //

phases (water oil); //water-displacing oil-displaced

gapWidth [0 1 0 0 0 0 0] 0.0007;

water
{
    transportModel  powerLaw;
    powerLawCoeffs
    {
        nuMax            [ 0 2 -1 0 0 0 0 ] 1;
    	nuMin            [ 0 2 -1 0 0 0 0 ] 1.0e-15;
        k                [ 0 2 -1 0 0 0 0 ] 0.000153;
        n                [ 0 0 0  0 0 0 0 ] 1;
    }
    rho             rho [1 -3 0 0 0 0 0] 867.6;
}

oil
{
    transportModel  powerLaw;
    powerLawCoeffs
    {
        nuMax            [ 0 2 -1 0 0 0 0 ] 1;
    	nuMin            [ 0 2 -1 0 0 0 0 ] 1.0e-15;
        k                [ 0 2 -1 0 0 0 0 ] 0.002493214;
        n                [ 0 0 0  0 0 0 0 ] 0.2213989; 
    }
    rho             rho [1 -3 0 0 0 0 0] 996.4;
}

sigma           sigma [1 0 -2  0 0 0 0 ] 0.0304;


// ************************************************************************* //
